7
ADF 2019.103; BP86/QZ4P; numerical quality: Very Good; scf convergence: 10**-8 au; gradient convergence: 10**-5 au; Cs symmetry
C      -0.00000000      -0.01318940       0.01448054
C       0.00000007      -0.06030598      -1.55487623
O       0.00000000      -1.12966629       0.60574456
O      -0.00000006       1.15000368       0.50879818
H       0.88433680       0.47067984      -1.94016799
H      -0.88433666       0.47067978      -1.94016807
H       0.00000012      -1.09171426      -1.93473861
