6
ADF 2019.103; BP86/QZ4P; numerical quality: Very Good; scf convergence: 10**-8 au; gradient convergence: 10**-5 au; D2h symmetry
C      -0.00000000       0.00000000       0.66626000
C       0.00000000      -0.00000000      -0.66626000
H       0.00000000       0.92713000       1.23984000
H      -0.00000000      -0.92713000       1.23984000
H       0.00000000       0.92713000      -1.23984000
H      -0.00000000      -0.92713000      -1.23984000
