6
ADF 2019.103; BP86/QZ4P; numerical quality: Very Good; scf convergence: 10**-8 au; gradient convergence: 10**-5 au; Cs symmetry
C       0.34517500      -0.11630200       0.00000000
H      -1.44772100       0.67832000       0.00000000
O      -1.08180100      -0.21862000       0.00000000
H       0.72586900       0.39885500      -0.89710000
H       0.72586900       0.39885500       0.89710000
H       0.73261000      -1.14110600       0.00000000
